../execute.sh: line 7: ../../../../simplesim-3.0_acx/sim-outorder: El fitxer o directori no existeix
